Version 4
SHEET 1 928 680
WIRE 864 -192 560 -192
WIRE 560 16 560 -192
WIRE 192 80 -16 80
WIRE 256 96 240 96
WIRE 512 96 256 96
WIRE 192 112 96 112
WIRE -240 128 -240 64
WIRE 864 128 864 -192
WIRE 560 176 560 112
WIRE 560 176 512 176
WIRE -240 208 -240 128
WIRE -16 224 -16 80
WIRE 96 224 96 112
WIRE 512 224 512 176
WIRE 512 224 96 224
WIRE 512 256 512 224
WIRE -240 416 -240 288
WIRE -16 496 -16 304
WIRE 512 496 512 336
WIRE 512 496 -16 496
WIRE 752 496 512 496
WIRE 864 496 864 208
WIRE 864 496 752 496
WIRE 752 544 752 496
FLAG -240 416 0
FLAG 752 544 0
FLAG 208 64 0
FLAG -240 128 2.7V
FLAG 208 128 2.7V
SYMBOL voltage -16 208 R0
WINDOW 123 0 0 Left 2
WINDOW 39 0 0 Left 2
SYMATTR InstName V1
SYMATTR Value PULSE(0 .1 .5 .1 .1 .3 1 2)
SYMBOL res 496 240 R0
SYMATTR InstName R1
SYMATTR Value .1
SYMBOL nmos 512 16 R0
SYMATTR InstName M1
SYMATTR Value BSC010NE2LSI
SYMBOL voltage 864 112 R0
WINDOW 123 0 0 Left 2
WINDOW 39 0 0 Left 2
SYMATTR InstName V2
SYMATTR Value 3.7
SYMBOL voltage -240 192 R0
WINDOW 123 0 0 Left 2
WINDOW 39 0 0 Left 2
SYMATTR InstName V3
SYMATTR Value 2.7
SYMBOL Opamps\\LT1218 224 96 M180
SYMATTR InstName U1
TEXT -284 568 Left 2 !.tran 2
